{\rtf1\ansi\ansicpg1252\cocoartf1561\cocoasubrtf600
{\fonttbl\f0\fswiss\fcharset0 Helvetica;}
{\colortbl;\red255\green255\blue255;}
{\*\expandedcolortbl;;}
\paperw11900\paperh16840\margl1440\margr1440\vieww10800\viewh8400\viewkind0
\pard\tx566\tx1133\tx1700\tx2267\tx2834\tx3401\tx3968\tx4535\tx5102\tx5669\tx6236\tx6803\pardirnatural\partightenfactor0

\f0\fs24 \cf0 * /Users/strue-audio/Documents/NDKFramework/NDKFramework/Example_Circuits/CommonEmitterAmplifier/Spice/CommonEmitterAmplifier.asc\
VIN0 N004 0 wavefile= "../../InputSounds/Sine_50_Amp_1.wav" chan=0\
VCC0 N001 0 9\
C1 N002 N004 0.047\'b5\
C2 N002 N003 0.25n\
C3 N003 VOUT0 0.47\'b5\
R1 N002 0 100k\
R2 N005 0 22\
R3 N003 N002 470k\
R4 N001 N003 10k\
R5 VOUT0 0 700\
Q1 N003 N002 N005 0 2N2222\
.model NPN NPN\
.model PNP PNP\
.lib /Users/strue-audio/Library/Application Support/LTspice/lib/cmp/standard.bjt\
.tran 4s\
* .wave "../out_spice_Sine_50_Amp_1.wav" 24 44100 VOUT0\
.backanno\
.end\
}