{\rtf1\ansi\ansicpg1252\cocoartf1561\cocoasubrtf600
{\fonttbl\f0\fnil\fcharset0 Menlo-Regular;}
{\colortbl;\red255\green255\blue255;\red0\green0\blue0;}
{\*\expandedcolortbl;;\cssrgb\c0\c0\c0;}
\paperw11900\paperh16840\margl1440\margr1440\vieww10800\viewh8400\viewkind0
\pard\tx560\tx1120\tx1680\tx2240\tx2800\tx3360\tx3920\tx4480\tx5040\tx5600\tx6160\tx6720\pardirnatural\partightenfactor0

\f0\fs24 \cf2 * /Users/strue-audio/Documents/NDKFramework/NDKFramework/Example_Circuits/CommonCathodeAmplifier/Spice/CommonCathodeAmplifier.asc\
XU1 N002 N003 N004 12AX7 12AX7\
R0 N003 0 1000000\
R2 N001 N002 100000\
R3 N004 0 1800\
C1 N004 0 0.47\'b5\
VCC0 N001 0 50\
VIN0 N003 0 wavefile= "../../InputSounds/Sine_440_Amp_1.wav" chan=0\
R4 VOUT0 0 1200\
C0 N002 VOUT0 0.20\'b5\
.include 12AX7.inc\
.INC 12AX7.inc\
.tran 4s\
* .wave "../out_spice_Sine_440_Amp_1.wav" 24 44100 VOUT0\
.backanno\
.end\
}